Version 4
SHEET 1 5040 960
WIRE -192 -192 -256 -192
WIRE 1408 -192 -128 -192
WIRE -256 -64 -256 -192
WIRE -192 -64 -256 -64
WIRE -64 -64 -128 -64
WIRE 80 -64 -64 -64
WIRE 160 -64 80 -64
WIRE 256 -64 160 -64
WIRE 368 -64 256 -64
WIRE 640 -64 640 -96
WIRE 640 -64 368 -64
WIRE 912 -64 640 -64
WIRE 1216 -64 912 -64
WIRE 1408 -64 1408 -192
WIRE 1408 -64 1312 -64
WIRE 160 -16 160 -64
WIRE 368 -16 368 -64
WIRE 912 -16 912 -64
WIRE 576 48 480 48
WIRE 752 48 656 48
WIRE 752 80 752 48
WIRE 0 112 -176 112
WIRE 1264 128 1264 0
WIRE 256 176 256 -64
WIRE -64 192 -64 -64
WIRE 640 208 640 192
WIRE 544 224 304 224
WIRE 608 224 544 224
WIRE 752 240 752 144
WIRE 752 240 672 240
WIRE 832 240 752 240
WIRE 1088 240 832 240
WIRE 368 256 368 64
WIRE 480 256 480 48
WIRE 480 256 368 256
WIRE 608 256 480 256
WIRE 1408 256 1408 -64
WIRE 1088 272 1088 240
WIRE 640 288 640 272
WIRE 912 304 912 64
WIRE 1264 336 1264 208
WIRE -176 352 -176 112
WIRE 0 352 0 112
WIRE 0 352 -176 352
WIRE 544 352 544 224
WIRE 784 352 544 352
WIRE 784 384 784 352
WIRE 1088 384 1088 352
WIRE 1200 384 1088 384
WIRE 160 400 160 64
WIRE 464 400 160 400
WIRE 80 416 80 -64
WIRE -256 432 -256 -64
WIRE 608 448 608 432
WIRE 576 464 128 464
WIRE 720 480 640 480
WIRE 784 480 784 448
WIRE 784 480 720 480
WIRE 912 480 912 368
WIRE 912 480 784 480
WIRE 464 496 464 400
WIRE 576 496 464 496
WIRE 1088 496 1088 384
WIRE 608 528 608 512
WIRE 720 544 720 480
WIRE 800 544 720 544
WIRE 368 560 368 256
WIRE 464 560 464 496
WIRE 1264 560 1264 432
WIRE -256 704 -256 512
WIRE -64 704 -64 272
WIRE -64 704 -256 704
WIRE 80 704 80 496
WIRE 80 704 -64 704
WIRE 256 704 256 256
WIRE 256 704 80 704
WIRE 368 704 368 624
WIRE 368 704 256 704
WIRE 464 704 464 624
WIRE 464 704 368 704
WIRE 608 704 464 704
WIRE 784 704 608 704
WIRE 1088 704 1088 576
WIRE 1088 704 784 704
WIRE 1264 704 1264 624
WIRE 1264 704 1088 704
WIRE 1408 704 1408 336
WIRE 1408 704 1264 704
WIRE 608 736 608 704
WIRE 784 736 784 704
FLAG 640 -96 V+
FLAG 608 528 V+
FLAG 640 288 V-
FLAG 608 432 V-
FLAG 608 736 V-
FLAG 784 736 0
FLAG 640 192 V+
FLAG 832 240 U1out
FLAG 800 544 U2out
SYMBOL npn 1200 336 R0
SYMATTR InstName Q1
SYMATTR Value BC547
SYMBOL pnp 1216 0 R270
SYMATTR InstName Q2
SYMATTR Value TIP32C
SYMBOL res 1248 112 R0
SYMATTR InstName R1
SYMATTR Value 1k
SYMBOL res 1072 256 R0
SYMATTR InstName R2
SYMATTR Value 10k
SYMBOL res 896 -32 R0
SYMATTR InstName R3
SYMATTR Value 4.7k
SYMBOL res 1072 480 R0
SYMATTR InstName R4
SYMATTR Value 10k
SYMBOL zener 480 624 R180
WINDOW 0 24 64 Left 2
WINDOW 3 24 0 Left 2
SYMATTR InstName D1
SYMATTR Value 1N750
SYMBOL zener 384 624 R180
WINDOW 0 24 64 Left 2
WINDOW 3 24 0 Left 2
SYMATTR InstName D2
SYMATTR Value 1N750
SYMBOL res 352 -32 R0
SYMATTR InstName R5
SYMATTR Value 1k
SYMBOL res 560 64 R270
WINDOW 0 32 56 VTop 2
WINDOW 3 0 56 VBottom 2
SYMATTR InstName R6
SYMATTR Value 1k
SYMBOL diode 736 80 R0
SYMATTR InstName D3
SYMATTR Value 1N4148
SYMBOL diode 768 384 R0
SYMATTR InstName D4
SYMATTR Value 1N4148
SYMBOL LED 896 304 R0
WINDOW 3 24 78 Left 2
SYMATTR Value LXHL-BW02
SYMATTR InstName D5
SYMBOL res 144 -32 R0
SYMATTR InstName R7
SYMATTR Value 1k
SYMBOL LED 1248 560 R0
WINDOW 3 24 78 Left 2
SYMATTR Value LXHL-BW02
SYMATTR InstName D6
SYMBOL diode -128 -80 R90
WINDOW 0 0 32 VBottom 2
WINDOW 3 32 32 VTop 2
SYMATTR InstName D7
SYMATTR Value RR601BM4S
SYMBOL diode -128 -208 R90
WINDOW 0 0 32 VBottom 2
WINDOW 3 32 32 VTop 2
SYMATTR InstName D8
SYMATTR Value RR601BM4S
SYMBOL potentiometer 64 400 R0
WINDOW 0 36 32 Left 2
WINDOW 3 -24 219 VLeft 2
SYMATTR InstName U3
SYMATTR Value Rtot=10k wiper=0.47
SYMBOL potentiometer 240 160 R0
WINDOW 0 36 32 Left 2
WINDOW 3 -25 216 VLeft 2
SYMATTR InstName U4
SYMATTR Value Rtot=10k wiper=0.3357
SYMBOL res -272 416 R0
SYMATTR InstName RL
SYMATTR Value 100
SYMBOL voltage 1408 240 R0
SYMATTR InstName V1
SYMATTR Value 25
SYMBOL Misc\\battery -64 176 R0
WINDOW 0 -87 -8 Left 2
WINDOW 3 -67 104 Left 2
SYMATTR InstName Vtest
SYMATTR Value 12
SYMBOL OpAmps\\LT1013 640 176 R0
SYMATTR InstName U1
SYMBOL OpAmps\\LT1013 608 544 M180
SYMATTR InstName U2
TEXT -216 800 Left 2 !.include BC547.mod
TEXT -216 840 Left 2 !.lib TIP32C.lib
TEXT -216 760 Left 2 !.include potentiometer_standard.lib
TEXT 1064 808 Left 2 !.dc Vtest 0 16 0.01
